*Heading
** Job name: test_potato Model name: Model-1
** Generated by: Abaqus/CAE 2024
*Preprint, echo=NO, model=NO, history=NO, contact=NO
**
** PARTS
**
*Part, name=potato
*Node
      1,   35.1830788,  -5.03233385
      2,   46.7033043,  -5.03233385
      3,   35.1830788,   8.07383537
      4,  -30.1008835,  -5.03233385
      5,   4.80307913,  -5.03233385
      6,   4.80307913,   12.5982628
      7,           0.,          15.
      8,   35.1830788,  -18.7335434
      9,   4.80307913,  -21.1316814
     10,   38.0631371,  -5.03233385
     11,   40.9431915,  -5.03233385
     12,   43.8232498,  -5.03233385
     13,   46.6006775,  -1.19763434
     14,   44.9756165,   2.26257682
     15,   42.1656876,   4.88046741
     16,   38.8020554,   6.75273418
     17,   35.1830788,   3.70511198
     18,   35.1830788, -0.663610995
     19,  -26.2226658,  -5.03233385
     20,  -22.3444481,  -5.03233385
** ... 170 like lines cut
*Element, type=CPE4
 1, 78, 80, 14, 15
 2, 79, 78, 15, 16
 3, 17, 79, 16,  3
 4, 11, 80, 82, 10
 5, 79, 82, 80, 78
 6, 11, 12, 81, 80
 7, 10, 82, 18,  1
 8, 79, 17, 18, 82
 9, 80, 81, 13, 14
10, 13, 81, 12,  2
11,  83,  20,  21,  85
12,  89,  91,  36,  37
13,  24,  86,  87,  23
14,  96,  25,  26, 111
15, 106, 115, 100, 110
16, 113, 101,  99,  93
17,  90,  89,  37,  38
18,  20,  83,  90,  19
19,  19,  90,  38,   4
20,  85,  21,  22,  88
** ... 145 like lines cut
*Nset, nset=b_leftBottom
  4,  9, 61, 62, 63, 64, 65, 66, 67, 68, 69, 70
*Elset, elset=b_leftBottom
 100, 104, 105, 106, 107, 108, 111, 112, 117, 123, 125
*Nset, nset=b_rightBottom
  2,  8, 54, 55, 56, 57
*Elset, elset=b_rightBottom
 90, 93, 97, 98, 99
*Nset, nset=b_top
  3,  6, 45, 46, 47, 48, 49, 50, 51
*Elset, elset=b_top
 61, 64, 65, 66, 75, 77, 78, 81
*Nset, nset=all, generate
   1,  190,    1
*Elset, elset=all, generate
   1,  165,    1
*Elset, elset=_s_top_S1, internal
 61, 66, 75, 77, 81
*Elset, elset=_s_top_S3, internal
 64, 65, 78
*Surface, type=ELEMENT, name=s_top
_s_top_S1, S1
_s_top_S3, S3
*Elset, elset=_s_wholeBoundary_S3, internal
   1,   2,   3,   9,  12,  17,  19,  24,  26,  32,  34,  36,  43,  64,  65,  78
 142, 145, 162
*Elset, elset=_s_wholeBoundary_S4, internal
  10,  97, 100, 104, 105, 106, 107, 111, 117, 125
*Elset, elset=_s_wholeBoundary_S1, internal
  22,  23,  61,  66,  75,  77,  81,  98, 147
*Elset, elset=_s_wholeBoundary_S2, internal
  90,  93,  99, 108, 112, 123, 148, 149, 157, 161
*Surface, type=ELEMENT, name=s_wholeBoundary
_s_wholeBoundary_S3, S3
_s_wholeBoundary_S4, S4
_s_wholeBoundary_S2, S2
_s_wholeBoundary_S1, S1
** Section: homogeneous
*Solid Section, elset=all, material=material
1.,
*End Part
**
**
** ASSEMBLY
**
*Assembly, name=Assembly
**
*Instance, name=potato-1, part=potato
*End Instance
**
*End Assembly
**
** MATERIALS
**
*Material, name=material
*Elastic
210000., 0.3
